output/compact_ny_2025/electrical_fixed_peak/S3_2019_SHOULDER_LIGHT_LOAD_PUBLIC/audit_branch.csv
branch_row,device_key,from_bus,to_bus,online,rate_a_mva,from_mva,to_mva,from_overload_mva,to_overload_mva,angle_deg,angle_min_deg,angle_max_deg,angle_below_min_deg,angle_above_max_deg,violated,invalid_limit_bounds,stored_terminal_flow_error_mva,stored_terminal_flow_inconsistent
1,NPCC_S7:BRANCH_ROW:33,37,38,1,2500,54.4479650342948,35.1343793176441,0,0,-0.225273770832263,-360,360,0,0,0,0,7.94410929039127e-15,0
2,NPCC_S7:BRANCH_ROW:34,37,39,1,3388,246.226210944544,243.088541483548,0,0,0.993294733805015,-360,360,0,0,0,0,2.92964275105423e-14,0
3,NPCC_S7:BRANCH_ROW:35,37,40,1,2500,73.7555890713922,77.9202503556779,0,0,-0.450727569944676,-360,360,0,0,0,0,1.77635683940025e-14,0
4,NPCC_S7:BRANCH_ROW:36,37,43,1,3745.98196383403,211.574248934827,253.776426461677,0,0,-2.26014098129727,-360,360,0,0,0,0,2.8421709430404e-14,0
5,NPCC_S7:BRANCH_ROW:37,38,69,1,1216,38.0597509770691,69.0808967788634,0,0,-0.892082881556126,-360,360,0,0,0,0,7.94410929039127e-15,0
6,NPCC_S7:BRANCH_ROW:38,39,73,1,2500,190.902688248637,193.836116262615,0,0,1.89198399553645,-360,360,0,0,0,0,5.72857867687912e-14,0
7,NPCC_S7:BRANCH_ROW:39,39,73,1,2500,190.902688248637,193.836116262615,0,0,1.89198399553645,-360,360,0,0,0,0,5.72857867687912e-14,0
8,NPCC_S7:BRANCH_ROW:40,40,44,1,1328.76341358641,57.6882441976746,59.8721289216299,0,0,-1.69245836542084,-360,360,0,0,0,0,3.5527136788005e-14,0
9,NPCC_S7:BRANCH_ROW:41,41,42,1,2500,177.092932688007,178.976618256401,0,0,-0.944904093402826,-360,360,0,0,0,0,7.105427357601e-15,0
10,NPCC_S7:BRANCH_ROW:42,41,45,1,314.254622579561,13.0638917813383,5.43450157404866,0,0,-0.439992765016387,-360,360,0,0,0,0,8.88178419700125e-16,0
11,NPCC_S7:BRANCH_ROW:43,43,44,1,2500,73.7271839557473,73.1615537069243,0,0,0.116955045931762,-360,360,0,0,0,0,2.48689957516035e-14,0
12,NPCC_S7:BRANCH_ROW:44,43,50,1,3463.47124449306,78.7738637162512,101.590079374597,0,0,-1.15695805323315,-360,360,0,0,0,0,7.17648163117701e-13,0
13,NPCC_S7:BRANCH_ROW:45,43,50,1,3463.47124449306,78.7738637162512,101.590079374597,0,0,-1.15695805323315,-360,360,0,0,0,0,7.17648163117701e-13,0
14,NPCC_S7:BRANCH_ROW:46,44,45,1,2500,132.802293855652,132.741136380953,0,0,1.55041824011604,-360,360,0,0,0,0,2.84230646508094e-14,0
15,NPCC_S7:BRANCH_ROW:47,44,48,1,6896.14528055676,153.98930706488,182.047029505082,0,0,-9.65007616179165,-360,360,0,0,0,0,1.56964020692204e-13,0
16,NPCC_S7:BRANCH_ROW:48,45,46,1,2040.85471944324,43.0168822625674,45.0991277928796,0,0,-8.33640143666381,-360,360,0,0,0,0,8.88178419700125e-16,0
17,NPCC_S7:BRANCH_ROW:49,45,51,1,489.56239109923,8.79540410838489,12.1977312177191,0,0,-1.11062565641258,-360,360,0,0,0,0,1.77635683940025e-15,0
18,NPCC_S7:BRANCH_ROW:50,45,71,1,166.495119914644,5.15414944784168,8.66336692593684,0,0,-1.27823970415746,-360,360,0,0,0,0,1.06950844436613e-14,0
19,NPCC_S7:BRANCH_ROW:51,46,47,1,2500,59.8878168807052,61.7192401981959,0,0,-3.44415348986828,-360,360,0,0,0,0,9.32037353773645e-14,0
20,NPCC_S7:BRANCH_ROW:52,46,49,1,2500,21.2029213140194,23.4635718552109,0,0,1.16793006721105,-360,360,0,0,0,0,3.5527136788005e-15,0
21,NPCC_S7:BRANCH_ROW:53,47,48,1,2500,667.506909784934,546.142681057936,0,0,0.580060524624397,-360,360,0,0,0,0,3.76671431050233e-13,0
22,NPCC_S7:BRANCH_ROW:54,50,51,1,2500,144.17724033987,144.338625503384,0,0,1.71370568286837,-360,360,0,0,0,0,1.4201972931005e-12,0
23,NPCC_S7:BRANCH_ROW:55,50,52,1,2858.06690137886,123.953810549021,49.031408993946,0,0,-0.530324679119453,-360,360,0,0,0,0,7.39954442581298e-13,0
24,NPCC_S7:BRANCH_ROW:56,51,53,1,290.964700741948,16.654222548421,10.3159767448188,0,0,1.12520929988105,-360,360,0,0,0,0,9.24132466690932e-14,0
25,NPCC_S7:BRANCH_ROW:57,51,72,1,2500,22.7979477790879,30.922108993144,0,0,-0.307698293604115,-360,360,0,0,0,0,7.31628313774082e-13,0
26,NPCC_S7:BRANCH_ROW:58,52,53,1,2500,155.722512309621,154.332533248349,0,0,3.36923966186888,-360,360,0,0,0,0,0,0
27,NPCC_S7:BRANCH_ROW:59,53,55,1,997.983883346124,67.6943459009306,71.619655868007,0,0,-4.23064622689721,-360,360,0,0,0,0,1.4210854715202e-14,0
28,NPCC_S7:BRANCH_ROW:60,53,65,1,785.968397879188,13.9226431611376,13.8120915986944,0,0,0.629363389279019,-360,360,0,0,0,0,1.97463956302132e-13,0
29,NPCC_S7:BRANCH_ROW:61,54,56,1,789.941803,107.382221739323,105.108461963044,0,0,0.577757773014388,-360,360,0,0,0,0,1.58882185807825e-14,0
30,NPCC_S7:BRANCH_ROW:62,54,62,1,789.941803,52.9969432855974,53.2436461579912,0,0,2.01635853278008,-360,360,0,0,0,0,7.105427357601e-15,0
31,NPCC_S7:BRANCH_ROW:65,55,57,1,789.941803,30.4107344725183,30.6946404784945,0,0,0.642052489420046,-360,360,0,0,0,0,9.24772462473931e-14,0
32,NPCC_S7:BRANCH_ROW:66,55,59,1,789.941803,19.4147108362585,20.5596670800399,0,0,0.806967596648649,-360,360,0,0,0,0,0,0
33,NPCC_S7:BRANCH_ROW:67,56,58,1,2500,156.406228421336,155.182895325095,0,0,1.32704355492349,-360,360,0,0,0,0,3.6999854255396e-13,0
34,NPCC_S7:BRANCH_ROW:68,57,59,1,2500,5.75168908196962,7.59357785886013,0,0,0.164915107228603,-360,360,0,0,0,0,8.88178419700125e-16,0
35,NPCC_S7:BRANCH_ROW:69,58,60,1,2500,15.1775172839997,14.9688175190876,0,0,0.121672411537225,-360,360,0,0,0,0,8.99869834592409e-14,0
36,NPCC_S7:BRANCH_ROW:70,58,62,1,2500,25.5706487412724,22.7995098393975,0,0,0.111557204842202,-360,360,0,0,0,0,1.79728340411272e-13,0
37,NPCC_S7:BRANCH_ROW:71,59,61,1,2500,3.56823844173733,3.43338309025295,0,0,0.144412957090786,-360,360,0,0,0,0,4.46861664293018e-14,0
38,NPCC_S7:BRANCH_ROW:73,62,63,1,620,62.591315584098,60.7018647857189,0,0,2.7954618662924,-360,360,0,0,0,0,7.10629466640589e-15,0
39,NPCC_S7:BRANCH_ROW:74,63,64,1,2500,51.9886420581951,51.7703921842056,0,0,1.32481440321473,-360,360,0,0,0,0,7.105427357601e-15,0
40,NPCC_S7:BRANCH_ROW:75,63,67,1,2500,14.4775624515074,12.2116650147801,0,0,0.515293679130106,-360,360,0,0,0,0,1.77635683940025e-15,0
41,NPCC_S7:BRANCH_ROW:76,64,65,1,2500,12.9751976254329,14.8264788474095,0,0,0.465657122944688,-360,360,0,0,0,0,1.97033529452836e-13,0
42,NPCC_S7:BRANCH_ROW:77,64,68,1,2500,3.47866419197312,12.7047238809903,0,0,-0.784075170246451,-360,360,0,0,0,0,5.01527199885394e-14,0
43,NPCC_S7:BRANCH_ROW:78,66,67,1,2500,29.3185550430108,29.1424592714774,0,0,-0.151182712824231,-360,360,0,0,0,0,3.97205464519564e-15,0
44,NPCC_S7:BRANCH_ROW:79,66,69,1,2500,27.1369861857261,3.93988554375647,0,0,-0.044540855681323,-360,360,0,0,0,0,3.5527136788005e-15,0
45,NPCC_S7:BRANCH_ROW:81,67,68,1,2500,30.3181282511303,29.8769700341103,0,0,0.0254455538381726,-360,360,0,0,0,0,3.5596458096435e-15,0
46,NPCC_S7:BRANCH_ROW:82,67,70,1,2500,10.3876652354569,18.6247850488301,0,0,-0.376394265016189,-360,360,0,0,0,0,3.62002445835026e-13,0
47,NPCC_S7:BRANCH_ROW:84,68,71,1,2500,4.77938362989206,7.06353028702191,0,0,-0.672454443713812,-360,360,0,0,0,0,6.21788331869309e-14,0
48,NPCC_S7:BRANCH_ROW:85,69,71,1,2500,71.8337864328191,70.2249105600269,0,0,-0.753650747018547,-360,360,0,0,0,0,7.105427357601e-15,0
49,NPCC_S7:BRANCH_ROW:86,70,71,1,2500,18.6247850488287,18.4810201486519,0,0,-0.27061462485945,-360,360,0,0,0,0,3.6419214318851e-13,0
50,NPCC_S7:BRANCH_ROW:87,71,72,1,2500,22.7053590140475,20.2039680656742,0,0,-0.140084245859236,-360,360,0,0,0,0,0,0
51,NPCC_S7:BRANCH_ROW:88,73,74,0,1599.84337349398,0,0,0,0,1.21882406122351,-360,360,0,0,0,0,0,0
52,NPCC_S7:BRANCH_ROW:89,73,74,0,1599.84337349398,0,0,0,0,1.21882406122351,-360,360,0,0,0,0,0,0
53,NPCC_S7:BRANCH_ROW:90,74,77,1,2500,28.5518226922331,28.2478535843808,0,0,-0.0687659550327417,-360,360,0,0,0,0,7.1607233460989e-15,0
54,NPCC_S7:BRANCH_ROW:91,74,78,1,2889.50495049505,174.002389411618,191.571594856889,0,0,0.352201748874439,-360,360,0,0,0,0,2.86851655412809e-12,0
55,NPCC_S7:BRANCH_ROW:92,74,78,1,2889.50495049505,174.002389411618,191.571594856889,0,0,0.352201748874439,-360,360,0,0,0,0,2.86851655412809e-12,0
56,NPCC_S7:BRANCH_ROW:94,76,77,0,4611.31325301205,0,0,0,0,0.154961803318866,-360,360,0,0,0,0,0,0
57,NPCC_S7:BRANCH_ROW:95,78,79,1,908.848753535103,96.9326745354569,96.8798212708149,0,0,0.85580823720175,-360,360,0,0,0,0,1.42731681407222e-14,0
58,NPCC_S7:BRANCH_ROW:96,78,80,1,984.654731457801,28.4018786250623,32.3221630726094,0,0,-0.606748757667497,-360,360,0,0,0,0,3.68524481470159e-13,0
59,NPCC_S7:BRANCH_ROW:97,78,81,1,503.818330764024,28.113044495408,28.05990732023,0,0,-0.435028657175335,-360,360,0,0,0,0,4.99358520644598e-14,0
60,NPCC_S7:BRANCH_ROW:98,78,82,1,451.473569126203,73.2990110218216,73.2359506255541,0,0,1.30283565768752,-360,360,0,0,0,0,7.14601360699624e-13,0
61,NPCC_S7:BRANCH_ROW:219,40,41,1,2500,95.9975625471479,94.5997302203083,0,0,0.297952639711588,-360,360,0,0,0,0,3.49901718330021e-14,0
62,NPCC_S7:BRANCH_ROW:220,49,48,1,2500,40.6028446344585,39.6114600074493,0,0,-4.03202303245493,-360,360,0,0,0,0,8.29389359319688e-14,0
63,NPCC_S7:BRANCH_ROW:222,54,52,1,4583.01611665388,202.882924071044,201.46393616024,0,0,2.603688874084,-360,360,0,0,0,0,2.8421709430404e-14,0
64,NPCC_S7:BRANCH_ROW:223,54,55,1,2500,243.053239954596,242.316346778011,0,0,1.74228230905567,-360,360,0,0,0,0,2.86428933843956e-14,0
65,NPCC_S7:BRANCH_ROW:224,56,57,1,2500,22.6214114734774,22.6421679183267,0,0,1.80657702546133,-360,360,0,0,0,0,1.78054992133705e-14,0
66,NPCC_S7:BRANCH_ROW:225,58,59,1,2500,124.263852514699,124.048224902382,0,0,0.644448577766437,-360,360,0,0,0,0,1.70678222125734e-13,0
67,NPCC_S7:BRANCH_ROW:226,60,61,1,2500,18.9252509723568,18.875556057753,0,0,0.667189123319998,-360,360,0,0,0,0,2.49323563530236e-14,0
68,NPCC_S7:BRANCH_ROW:227,75,76,1,2500,11.0835594198527,11.0836854045153,0,0,-0.0467802346697086,-360,360,0,0,0,0,1.79018083652472e-15,0
69,NPCC_S7:BRANCH_ROW:234,38,39,1,1216,113.693537760006,124.945101922336,0,0,1.21856850463728,-360,360,0,0,0,0,4.32206272925713e-14,0
70,NPCC_S7:BRANCH_ROW:235,73,9002,0,2432,0,0,0,0,0.639421550811831,-360,360,0,0,0,0,0,0
71,NPCC_S7:BRANCH_ROW:236,9002,74,0,2432,0,0,0,0,0.579402510411683,-360,360,0,0,0,0,0,0
72,NPCC_S7:BRANCH_ROW:237,74,78,1,866.851485148515,55.1149805424835,54.810592175706,0,0,0.352201748874439,-360,360,0,0,0,0,1.4312807152253e-12,0
73,NPCC_S7:BRANCH_ROW:238,77,78,1,650.138613861386,46.3712710019931,46.1091512082065,0,0,0.420967703907181,-360,360,0,0,0,0,4.32206272925713e-14,0
74,NPCC_S7:BRANCH_ROW:239,78,81,1,1158.78216075726,64.5545180246862,64.4325019003432,0,0,-0.435028657175335,-360,360,0,0,0,0,1.41621434617304e-12,0
75,NPCC_S7:BRANCH_ROW:240,78,79,1,1390.53859290871,148.069213766225,147.988477921702,0,0,0.85580823720175,-360,360,0,0,0,0,1.14068702920397e-13,0
76,NPCC_S7:BRANCH_ROW:241,78,82,1,1390.53859290871,225.385370763989,225.191467864138,0,0,1.30283565768752,-360,360,0,0,0,0,1.43181413615328e-12,0
77,NPCC_S7:BRANCH_ROW:242,78,9003,1,2865.3452685422,92.3386061455274,92.4488645930736,0,0,-1.06499054626556,-360,360,0,0,0,0,1.42656368589535e-13,0
78,NPCC_S7:BRANCH_ROW:243,9003,80,1,5000,39.7292052888887,39.7213995112614,0,0,0.458241788598058,-360,360,0,0,0,0,1.78086002471859e-13,0
79,NPCC_S7:BRANCH_ROW:244,81,80,1,2950,13.7174979553793,13.7571820014833,0,0,-0.171720100492162,-360,360,0,0,0,0,4.45508028831812e-14,0
80,NPCC_S7:BRANCH_ROW:245,39,9001,1,5000,59.0447080581129,58.737661940163,0,0,1.09965517472016,-360,360,0,0,0,0,7.32410687763558e-15,0
81,NPCC_S7:BRANCH_ROW:246,9001,73,1,5000,58.7376619401628,58.531707259289,0,0,0.792328820816289,-360,360,0,0,0,0,4.98647127060472e-14,0
82,PERFORM2019:AC:651:858:1,73,858,1,1216,95.2508295254689,98.2754063699761,0,0,0.272862666821522,-360,360,0,0,0,0,1.4210854715202e-14,0
83,PERFORM2019:AC:651:858:2,73,858,1,1216,95.2507474991955,98.275555676973,0,0,0.272862666821522,-360,360,0,0,0,0,1.46482137552712e-14,0
84,PERFORM2019:AC:651:902:1,73,9002,1,1216,95.442315243293,105.128124507695,0,0,0.639421550811831,-360,360,0,0,0,0,2.71497998121259e-13,0
85,PERFORM2019:AC:651:902:2,73,9002,1,1216,95.442232539011,105.128350953628,0,0,0.639421550811831,-360,360,0,0,0,0,2.71497998121259e-13,0
86,PERFORM2019:AC:858:902:1,858,9002,1,1216,98.2753317173939,104.941868760381,0,0,0.366558883990309,-360,360,0,0,0,0,5.414247061043e-13,0
87,PERFORM2019:AC:858:902:2,858,9002,1,1216,98.2756303313847,104.941415819434,0,0,0.366558883990309,-360,360,0,0,0,0,5.55860629435982e-13,0
88,PERFORM2019:AC:897:902:1,9002,74,1,1216,210.067275738871,215.629459456319,0,0,0.579402510411683,-360,360,0,0,0,0,8.83933440723239e-13,0
89,PERFORM2019:AC:897:902:2,9002,74,1,1216,210.072484277298,215.623796323211,0,0,0.579402510411683,-360,360,0,0,0,0,9.12266037045358e-13,0
90,PERFORM2019:AC:774:1519:1,76,774,1,1216,34.6489924141308,33.4053126224614,0,0,0.0530589777522064,-360,360,0,0,0,0,5.87402315803117e-12,0
91,PERFORM2019:AC:774:900:1,774,77,1,1725,33.4053126224599,35.2885612151211,0,0,0.101902825566659,-360,360,0,0,0,0,3.49550964451219e-13,0
92,PERFORM2019:AC:900:1519:1,76,77,1,1725,34.4046245293919,35.0321966028642,0,0,0.154961803318866,-360,360,0,0,0,0,1.71452946233524e-13,0
